* Created by KLayout

* cell shiftregister
* pin SUBSTRATE
.SUBCKT shiftregister SUBSTRATE
* device instance $1 r0 *1 44.25,1.2 slvtpfet
M$1 \$1 \$I10 \$I438 \$I36 slvtpfet L=0.2U W=1U AS=0.15P AD=0.15P PS=1.3U
+ PD=1.3U
* device instance $2 r0 *1 44.75,1.2 slvtpfet
M$2 \$I438 \$1 \$1 \$I36 slvtpfet L=0.2U W=1U AS=0.15P AD=0.15P PS=1.3U PD=1.3U
* device instance $3 r0 *1 45.25,1.2 slvtpfet
M$3 \$1 \$I438 \$I477 \$I36 slvtpfet L=0.2U W=1U AS=0.15P AD=0.15P PS=1.3U
+ PD=1.3U
* device instance $4 r0 *1 45.75,1.2 slvtpfet
M$4 \$I477 \$1 \$1 \$I36 slvtpfet L=0.2U W=1U AS=0.15P AD=0.15P PS=1.3U PD=1.3U
* device instance $5 r0 *1 46.25,1.2 slvtpfet
M$5 \$1 \$I438 \$1 \$I36 slvtpfet L=0.2U W=2U AS=0.3P AD=0.3P PS=2.6U PD=2.6U
* device instance $6 r0 *1 46.75,1.2 slvtpfet
M$6 \$1 \$I477 \$I1152 \$I36 slvtpfet L=0.2U W=1U AS=0.15P AD=0.15P PS=1.3U
+ PD=1.3U
* device instance $7 r0 *1 47.25,1.2 slvtpfet
M$7 \$I1152 \$I10 \$I468 \$I36 slvtpfet L=0.2U W=1U AS=0.15P AD=0.15P PS=1.3U
+ PD=1.3U
* device instance $8 r0 *1 47.75,1.2 slvtpfet
M$8 \$I468 \$1 \$I468 \$I36 slvtpfet L=0.2U W=1U AS=0.15P AD=0.15P PS=1.3U
+ PD=1.3U
* device instance $9 r0 *1 48.25,1.2 slvtpfet
M$9 \$I468 \$I120 \$I1149 \$I36 slvtpfet L=0.2U W=1U AS=0.15P AD=0.15P PS=1.3U
+ PD=1.3U
* device instance $10 r0 *1 48.75,1.2 slvtpfet
M$10 \$I1149 \$I438 \$1 \$I36 slvtpfet L=0.2U W=1U AS=0.15P AD=0.15P PS=1.3U
+ PD=1.3U
* device instance $11 r0 *1 49.25,1.2 slvtpfet
M$11 \$1 \$I477 \$1 \$I36 slvtpfet L=0.2U W=1U AS=0.15P AD=0.15P PS=1.3U PD=1.3U
* device instance $12 r0 *1 49.75,1.2 slvtpfet
M$12 \$1 \$I468 \$I120 \$I36 slvtpfet L=0.2U W=1U AS=0.15P AD=0.15P PS=1.3U
+ PD=1.3U
* device instance $13 r0 *1 50.25,1.2 slvtpfet
M$13 \$I120 \$I477 \$I120 \$I36 slvtpfet L=0.2U W=1U AS=0.15P AD=0.15P PS=1.3U
+ PD=1.3U
* device instance $14 r0 *1 50.75,1.2 slvtpfet
M$14 \$I120 \$I438 \$I462 \$I36 slvtpfet L=0.2U W=1U AS=0.15P AD=0.15P PS=1.3U
+ PD=1.3U
* device instance $15 r0 *1 51.25,1.2 slvtpfet
M$15 \$I462 \$1 \$I462 \$I36 slvtpfet L=0.2U W=1U AS=0.15P AD=0.15P PS=1.3U
+ PD=1.3U
* device instance $16 r0 *1 51.75,1.2 slvtpfet
M$16 \$I462 \$I113 \$I1177 \$I36 slvtpfet L=0.2U W=1U AS=0.15P AD=0.15P PS=1.3U
+ PD=1.3U
* device instance $17 r0 *1 52.25,1.2 slvtpfet
M$17 \$I1177 \$I477 \$1 \$I36 slvtpfet L=0.2U W=1U AS=0.15P AD=0.15P PS=1.3U
+ PD=1.3U
* device instance $19 r0 *1 53.25,1.2 slvtpfet
M$19 \$1 \$I462 \$I113 \$I36 slvtpfet L=0.2U W=1U AS=0.15P AD=0.15P PS=1.3U
+ PD=1.3U
* device instance $20 r0 *1 53.75,1.2 slvtpfet
M$20 \$I113 \$1 \$1 \$I36 slvtpfet L=0.2U W=1U AS=0.15P AD=0.15P PS=1.3U PD=1.3U
* device instance $21 r0 *1 54.25,1.2 slvtpfet
M$21 \$1 \$I113 \$I11 \$I36 slvtpfet L=0.2U W=1U AS=0.15P AD=0.15P PS=1.3U
+ PD=1.3U
* device instance $22 r0 *1 54.75,1.2 slvtpfet
M$22 \$I11 \$1 \$1 \$I36 slvtpfet L=0.2U W=1U AS=0.15P AD=0.15P PS=1.3U PD=1.3U
* device instance $23 r0 *1 55.25,1.2 slvtpfet
M$23 \$1 \$I11 \$I505 \$I36 slvtpfet L=0.2U W=1U AS=0.15P AD=0.15P PS=1.3U
+ PD=1.3U
* device instance $24 r0 *1 55.75,1.2 slvtpfet
M$24 \$I505 \$1 \$1 \$I36 slvtpfet L=0.2U W=1U AS=0.15P AD=0.15P PS=1.3U PD=1.3U
* device instance $25 r0 *1 56.25,1.2 slvtpfet
M$25 \$1 \$I505 \$I503 \$I36 slvtpfet L=0.2U W=1U AS=0.15P AD=0.15P PS=1.3U
+ PD=1.3U
* device instance $26 r0 *1 56.75,1.2 slvtpfet
M$26 \$I503 \$1 \$1 \$I36 slvtpfet L=0.2U W=1U AS=0.15P AD=0.15P PS=1.3U PD=1.3U
* device instance $27 r0 *1 57.25,1.2 slvtpfet
M$27 \$1 \$I505 \$1 \$I36 slvtpfet L=0.2U W=2U AS=0.3P AD=0.3P PS=2.6U PD=2.6U
* device instance $28 r0 *1 57.75,1.2 slvtpfet
M$28 \$1 \$I503 \$I1189 \$I36 slvtpfet L=0.2U W=1U AS=0.15P AD=0.15P PS=1.3U
+ PD=1.3U
* device instance $29 r0 *1 58.25,1.2 slvtpfet
M$29 \$I1189 \$I11 \$I499 \$I36 slvtpfet L=0.2U W=1U AS=0.15P AD=0.15P PS=1.3U
+ PD=1.3U
* device instance $30 r0 *1 58.75,1.2 slvtpfet
M$30 \$I499 \$1 \$I499 \$I36 slvtpfet L=0.2U W=1U AS=0.15P AD=0.15P PS=1.3U
+ PD=1.3U
* device instance $31 r0 *1 59.25,1.2 slvtpfet
M$31 \$I499 \$I151 \$I1192 \$I36 slvtpfet L=0.2U W=1U AS=0.15P AD=0.15P PS=1.3U
+ PD=1.3U
* device instance $32 r0 *1 59.75,1.2 slvtpfet
M$32 \$I1192 \$I505 \$1 \$I36 slvtpfet L=0.2U W=1U AS=0.15P AD=0.15P PS=1.3U
+ PD=1.3U
* device instance $33 r0 *1 60.25,1.2 slvtpfet
M$33 \$1 \$I503 \$1 \$I36 slvtpfet L=0.2U W=1U AS=0.15P AD=0.15P PS=1.3U PD=1.3U
* device instance $34 r0 *1 60.75,1.2 slvtpfet
M$34 \$1 \$I499 \$I151 \$I36 slvtpfet L=0.2U W=1U AS=0.15P AD=0.15P PS=1.3U
+ PD=1.3U
* device instance $35 r0 *1 61.25,1.2 slvtpfet
M$35 \$I151 \$I503 \$I151 \$I36 slvtpfet L=0.2U W=1U AS=0.15P AD=0.15P PS=1.3U
+ PD=1.3U
* device instance $36 r0 *1 61.75,1.2 slvtpfet
M$36 \$I151 \$I505 \$I493 \$I36 slvtpfet L=0.2U W=1U AS=0.15P AD=0.15P PS=1.3U
+ PD=1.3U
* device instance $37 r0 *1 62.25,1.2 slvtpfet
M$37 \$I493 \$1 \$I493 \$I36 slvtpfet L=0.2U W=1U AS=0.15P AD=0.15P PS=1.3U
+ PD=1.3U
* device instance $38 r0 *1 62.75,1.2 slvtpfet
M$38 \$I493 \$I144 \$I1199 \$I36 slvtpfet L=0.2U W=1U AS=0.15P AD=0.15P PS=1.3U
+ PD=1.3U
* device instance $39 r0 *1 63.25,1.2 slvtpfet
M$39 \$I1199 \$I503 \$1 \$I36 slvtpfet L=0.2U W=1U AS=0.15P AD=0.15P PS=1.3U
+ PD=1.3U
* device instance $41 r0 *1 64.25,1.2 slvtpfet
M$41 \$1 \$I493 \$I144 \$I36 slvtpfet L=0.2U W=1U AS=0.15P AD=0.15P PS=1.3U
+ PD=1.3U
* device instance $42 r0 *1 64.75,1.2 slvtpfet
M$42 \$I144 \$1 \$1 \$I36 slvtpfet L=0.2U W=1U AS=0.15P AD=0.15P PS=1.3U PD=1.3U
* device instance $43 r0 *1 65.25,1.2 slvtpfet
M$43 \$1 \$I144 \$I12 \$I36 slvtpfet L=0.2U W=1U AS=0.15P AD=0.15P PS=1.3U
+ PD=1.3U
* device instance $44 r0 *1 65.75,1.2 slvtpfet
M$44 \$I12 \$1 \$1 \$I36 slvtpfet L=0.2U W=1U AS=0.15P AD=0.15P PS=1.3U PD=1.3U
* device instance $45 r0 *1 66.25,1.2 slvtpfet
M$45 \$1 \$I12 \$I435 \$I36 slvtpfet L=0.2U W=1U AS=0.15P AD=0.15P PS=1.3U
+ PD=1.3U
* device instance $46 r0 *1 66.75,1.2 slvtpfet
M$46 \$I435 \$1 \$1 \$I36 slvtpfet L=0.2U W=1U AS=0.15P AD=0.15P PS=1.3U PD=1.3U
* device instance $47 r0 *1 67.25,1.2 slvtpfet
M$47 \$1 \$I435 \$I516 \$I36 slvtpfet L=0.2U W=1U AS=0.15P AD=0.15P PS=1.3U
+ PD=1.3U
* device instance $48 r0 *1 67.75,1.2 slvtpfet
M$48 \$I516 \$1 \$1 \$I36 slvtpfet L=0.2U W=1U AS=0.15P AD=0.15P PS=1.3U PD=1.3U
* device instance $49 r0 *1 68.25,1.2 slvtpfet
M$49 \$1 \$I435 \$1 \$I36 slvtpfet L=0.2U W=2U AS=0.3P AD=0.3P PS=2.6U PD=2.6U
* device instance $50 r0 *1 68.75,1.2 slvtpfet
M$50 \$1 \$I516 \$I1300 \$I36 slvtpfet L=0.2U W=1U AS=0.15P AD=0.15P PS=1.3U
+ PD=1.3U
* device instance $51 r0 *1 69.25,1.2 slvtpfet
M$51 \$I1300 \$I12 \$I512 \$I36 slvtpfet L=0.2U W=1U AS=0.15P AD=0.15P PS=1.3U
+ PD=1.3U
* device instance $52 r0 *1 69.75,1.2 slvtpfet
M$52 \$I512 \$1 \$I512 \$I36 slvtpfet L=0.2U W=1U AS=0.15P AD=0.15P PS=1.3U
+ PD=1.3U
* device instance $53 r0 *1 70.25,1.2 slvtpfet
M$53 \$I512 \$I217 \$I1309 \$I36 slvtpfet L=0.2U W=1U AS=0.15P AD=0.15P PS=1.3U
+ PD=1.3U
* device instance $54 r0 *1 70.75,1.2 slvtpfet
M$54 \$I1309 \$I435 \$1 \$I36 slvtpfet L=0.2U W=1U AS=0.15P AD=0.15P PS=1.3U
+ PD=1.3U
* device instance $55 r0 *1 71.25,1.2 slvtpfet
M$55 \$1 \$I516 \$1 \$I36 slvtpfet L=0.2U W=1U AS=0.15P AD=0.15P PS=1.3U PD=1.3U
* device instance $56 r0 *1 71.75,1.2 slvtpfet
M$56 \$1 \$I512 \$I217 \$I36 slvtpfet L=0.2U W=1U AS=0.15P AD=0.15P PS=1.3U
+ PD=1.3U
* device instance $57 r0 *1 72.25,1.2 slvtpfet
M$57 \$I217 \$I516 \$I217 \$I36 slvtpfet L=0.2U W=1U AS=0.15P AD=0.15P PS=1.3U
+ PD=1.3U
* device instance $58 r0 *1 72.75,1.2 slvtpfet
M$58 \$I217 \$I435 \$I559 \$I36 slvtpfet L=0.2U W=1U AS=0.15P AD=0.15P PS=1.3U
+ PD=1.3U
* device instance $59 r0 *1 73.25,1.2 slvtpfet
M$59 \$I559 \$1 \$I559 \$I36 slvtpfet L=0.2U W=1U AS=0.15P AD=0.15P PS=1.3U
+ PD=1.3U
* device instance $60 r0 *1 73.75,1.2 slvtpfet
M$60 \$I559 \$I210 \$I1311 \$I36 slvtpfet L=0.2U W=1U AS=0.15P AD=0.15P PS=1.3U
+ PD=1.3U
* device instance $61 r0 *1 74.25,1.2 slvtpfet
M$61 \$I1311 \$I516 \$1 \$I36 slvtpfet L=0.2U W=1U AS=0.15P AD=0.15P PS=1.3U
+ PD=1.3U
* device instance $63 r0 *1 75.25,1.2 slvtpfet
M$63 \$1 \$I559 \$I210 \$I36 slvtpfet L=0.2U W=1U AS=0.15P AD=0.15P PS=1.3U
+ PD=1.3U
* device instance $64 r0 *1 75.75,1.2 slvtpfet
M$64 \$I210 \$1 \$1 \$I36 slvtpfet L=0.2U W=1U AS=0.15P AD=0.15P PS=1.3U PD=1.3U
* device instance $65 r0 *1 76.25,1.2 slvtpfet
M$65 \$1 \$I210 \$I13 \$I36 slvtpfet L=0.2U W=1U AS=0.15P AD=0.15P PS=1.3U
+ PD=1.3U
* device instance $66 r0 *1 76.75,1.2 slvtpfet
M$66 \$I13 \$1 \$1 \$I36 slvtpfet L=0.2U W=1U AS=0.15P AD=0.15P PS=1.3U PD=1.3U
* device instance $67 r0 *1 77.25,1.2 slvtpfet
M$67 \$1 \$I13 \$I549 \$I36 slvtpfet L=0.2U W=1U AS=0.15P AD=0.15P PS=1.3U
+ PD=1.3U
* device instance $68 r0 *1 77.75,1.2 slvtpfet
M$68 \$I549 \$1 \$1 \$I36 slvtpfet L=0.2U W=1U AS=0.15P AD=0.15P PS=1.3U PD=1.3U
* device instance $69 r0 *1 78.25,1.2 slvtpfet
M$69 \$1 \$I549 \$I547 \$I36 slvtpfet L=0.2U W=1U AS=0.15P AD=0.15P PS=1.3U
+ PD=1.3U
* device instance $70 r0 *1 78.75,1.2 slvtpfet
M$70 \$I547 \$1 \$1 \$I36 slvtpfet L=0.2U W=1U AS=0.15P AD=0.15P PS=1.3U PD=1.3U
* device instance $71 r0 *1 79.25,1.2 slvtpfet
M$71 \$1 \$I549 \$1 \$I36 slvtpfet L=0.2U W=2U AS=0.3P AD=0.3P PS=2.6U PD=2.6U
* device instance $72 r0 *1 79.75,1.2 slvtpfet
M$72 \$1 \$I547 \$I1275 \$I36 slvtpfet L=0.2U W=1U AS=0.15P AD=0.15P PS=1.3U
+ PD=1.3U
* device instance $73 r0 *1 80.25,1.2 slvtpfet
M$73 \$I1275 \$I13 \$I543 \$I36 slvtpfet L=0.2U W=1U AS=0.15P AD=0.15P PS=1.3U
+ PD=1.3U
* device instance $74 r0 *1 80.75,1.2 slvtpfet
M$74 \$I543 \$1 \$I543 \$I36 slvtpfet L=0.2U W=1U AS=0.15P AD=0.15P PS=1.3U
+ PD=1.3U
* device instance $75 r0 *1 81.25,1.2 slvtpfet
M$75 \$I543 \$I195 \$I1278 \$I36 slvtpfet L=0.2U W=1U AS=0.15P AD=0.15P PS=1.3U
+ PD=1.3U
* device instance $76 r0 *1 81.75,1.2 slvtpfet
M$76 \$I1278 \$I549 \$1 \$I36 slvtpfet L=0.2U W=1U AS=0.15P AD=0.15P PS=1.3U
+ PD=1.3U
* device instance $77 r0 *1 82.25,1.2 slvtpfet
M$77 \$1 \$I547 \$1 \$I36 slvtpfet L=0.2U W=1U AS=0.15P AD=0.15P PS=1.3U PD=1.3U
* device instance $78 r0 *1 82.75,1.2 slvtpfet
M$78 \$1 \$I543 \$I195 \$I36 slvtpfet L=0.2U W=1U AS=0.15P AD=0.15P PS=1.3U
+ PD=1.3U
* device instance $79 r0 *1 83.25,1.2 slvtpfet
M$79 \$I195 \$I547 \$I195 \$I36 slvtpfet L=0.2U W=1U AS=0.15P AD=0.15P PS=1.3U
+ PD=1.3U
* device instance $80 r0 *1 83.75,1.2 slvtpfet
M$80 \$I195 \$I549 \$I482 \$I36 slvtpfet L=0.2U W=1U AS=0.15P AD=0.15P PS=1.3U
+ PD=1.3U
* device instance $81 r0 *1 84.25,1.2 slvtpfet
M$81 \$I482 \$1 \$I482 \$I36 slvtpfet L=0.2U W=1U AS=0.15P AD=0.15P PS=1.3U
+ PD=1.3U
* device instance $82 r0 *1 84.75,1.2 slvtpfet
M$82 \$I482 \$I129 \$I1285 \$I36 slvtpfet L=0.2U W=1U AS=0.15P AD=0.15P PS=1.3U
+ PD=1.3U
* device instance $83 r0 *1 85.25,1.2 slvtpfet
M$83 \$I1285 \$I547 \$1 \$I36 slvtpfet L=0.2U W=1U AS=0.15P AD=0.15P PS=1.3U
+ PD=1.3U
* device instance $85 r0 *1 86.25,1.2 slvtpfet
M$85 \$1 \$I482 \$I129 \$I36 slvtpfet L=0.2U W=1U AS=0.15P AD=0.15P PS=1.3U
+ PD=1.3U
* device instance $86 r0 *1 86.75,1.2 slvtpfet
M$86 \$I129 \$1 \$1 \$I36 slvtpfet L=0.2U W=1U AS=0.15P AD=0.15P PS=1.3U PD=1.3U
* device instance $87 r0 *1 87.25,1.2 slvtpfet
M$87 \$1 \$I129 \$I470 \$I36 slvtpfet L=0.2U W=1U AS=0.15P AD=0.15P PS=1.3U
+ PD=1.3U
* device instance $88 r0 *1 87.75,1.2 slvtpfet
M$88 \$I470 \$1 \$1 \$I36 slvtpfet L=0.2U W=1U AS=0.15P AD=0.4P PS=1.3U PD=2.8U
* device instance $89 r0 *1 0.25,1.2 slvtpfet
M$89 \$1 \$I29 \$I44 \$I36 slvtpfet L=0.2U W=1U AS=0.4P AD=0.15P PS=2.8U PD=1.3U
* device instance $90 r0 *1 0.75,1.2 slvtpfet
M$90 \$I44 \$1 \$1 \$I36 slvtpfet L=0.2U W=1U AS=0.15P AD=0.15P PS=1.3U PD=1.3U
* device instance $91 r0 *1 1.25,1.2 slvtpfet
M$91 \$1 \$I44 \$I397 \$I36 slvtpfet L=0.2U W=1U AS=0.15P AD=0.15P PS=1.3U
+ PD=1.3U
* device instance $92 r0 *1 1.75,1.2 slvtpfet
M$92 \$I397 \$1 \$1 \$I36 slvtpfet L=0.2U W=1U AS=0.15P AD=0.15P PS=1.3U PD=1.3U
* device instance $93 r0 *1 2.25,1.2 slvtpfet
M$93 \$1 \$I44 \$1 \$I36 slvtpfet L=0.2U W=2U AS=0.3P AD=0.3P PS=2.6U PD=2.6U
* device instance $94 r0 *1 2.75,1.2 slvtpfet
M$94 \$1 \$I397 \$I1232 \$I36 slvtpfet L=0.2U W=1U AS=0.15P AD=0.15P PS=1.3U
+ PD=1.3U
* device instance $95 r0 *1 3.25,1.2 slvtpfet
M$95 \$I1232 \$I55 \$I401 \$I36 slvtpfet L=0.2U W=1U AS=0.15P AD=0.15P PS=1.3U
+ PD=1.3U
* device instance $96 r0 *1 3.75,1.2 slvtpfet
M$96 \$I401 \$1 \$I401 \$I36 slvtpfet L=0.2U W=1U AS=0.15P AD=0.15P PS=1.3U
+ PD=1.3U
* device instance $97 r0 *1 4.25,1.2 slvtpfet
M$97 \$I401 \$I57 \$I1258 \$I36 slvtpfet L=0.2U W=1U AS=0.15P AD=0.15P PS=1.3U
+ PD=1.3U
* device instance $98 r0 *1 4.75,1.2 slvtpfet
M$98 \$I1258 \$I44 \$1 \$I36 slvtpfet L=0.2U W=1U AS=0.15P AD=0.15P PS=1.3U
+ PD=1.3U
* device instance $99 r0 *1 5.25,1.2 slvtpfet
M$99 \$1 \$I397 \$1 \$I36 slvtpfet L=0.2U W=1U AS=0.15P AD=0.15P PS=1.3U PD=1.3U
* device instance $100 r0 *1 5.75,1.2 slvtpfet
M$100 \$1 \$I401 \$I57 \$I36 slvtpfet L=0.2U W=1U AS=0.15P AD=0.15P PS=1.3U
+ PD=1.3U
* device instance $101 r0 *1 6.25,1.2 slvtpfet
M$101 \$I57 \$I397 \$I57 \$I36 slvtpfet L=0.2U W=1U AS=0.15P AD=0.15P PS=1.3U
+ PD=1.3U
* device instance $102 r0 *1 6.75,1.2 slvtpfet
M$102 \$I57 \$I44 \$I441 \$I36 slvtpfet L=0.2U W=1U AS=0.15P AD=0.15P PS=1.3U
+ PD=1.3U
* device instance $103 r0 *1 7.25,1.2 slvtpfet
M$103 \$I441 \$1 \$I441 \$I36 slvtpfet L=0.2U W=1U AS=0.15P AD=0.15P PS=1.3U
+ PD=1.3U
* device instance $104 r0 *1 7.75,1.2 slvtpfet
M$104 \$I441 \$I98 \$I1265 \$I36 slvtpfet L=0.2U W=1U AS=0.15P AD=0.15P PS=1.3U
+ PD=1.3U
* device instance $105 r0 *1 8.25,1.2 slvtpfet
M$105 \$I1265 \$I397 \$1 \$I36 slvtpfet L=0.2U W=1U AS=0.15P AD=0.15P PS=1.3U
+ PD=1.3U
* device instance $107 r0 *1 9.25,1.2 slvtpfet
M$107 \$1 \$I441 \$I98 \$I36 slvtpfet L=0.2U W=1U AS=0.15P AD=0.15P PS=1.3U
+ PD=1.3U
* device instance $108 r0 *1 9.75,1.2 slvtpfet
M$108 \$I98 \$1 \$1 \$I36 slvtpfet L=0.2U W=1U AS=0.15P AD=0.15P PS=1.3U PD=1.3U
* device instance $109 r0 *1 10.25,1.2 slvtpfet
M$109 \$1 \$I98 \$I22 \$I36 slvtpfet L=0.2U W=1U AS=0.15P AD=0.15P PS=1.3U
+ PD=1.3U
* device instance $110 r0 *1 10.75,1.2 slvtpfet
M$110 \$I22 \$1 \$1 \$I36 slvtpfet L=0.2U W=1U AS=0.15P AD=0.15P PS=1.3U PD=1.3U
* device instance $111 r0 *1 11.25,1.2 slvtpfet
M$111 \$1 \$I22 \$I451 \$I36 slvtpfet L=0.2U W=1U AS=0.15P AD=0.15P PS=1.3U
+ PD=1.3U
* device instance $112 r0 *1 11.75,1.2 slvtpfet
M$112 \$I451 \$1 \$1 \$I36 slvtpfet L=0.2U W=1U AS=0.15P AD=0.15P PS=1.3U
+ PD=1.3U
* device instance $113 r0 *1 12.25,1.2 slvtpfet
M$113 \$1 \$I451 \$I453 \$I36 slvtpfet L=0.2U W=1U AS=0.15P AD=0.15P PS=1.3U
+ PD=1.3U
* device instance $114 r0 *1 12.75,1.2 slvtpfet
M$114 \$I453 \$1 \$1 \$I36 slvtpfet L=0.2U W=1U AS=0.15P AD=0.15P PS=1.3U
+ PD=1.3U
* device instance $115 r0 *1 13.25,1.2 slvtpfet
M$115 \$1 \$I451 \$1 \$I36 slvtpfet L=0.2U W=2U AS=0.3P AD=0.3P PS=2.6U PD=2.6U
* device instance $116 r0 *1 13.75,1.2 slvtpfet
M$116 \$1 \$I453 \$I1214 \$I36 slvtpfet L=0.2U W=1U AS=0.15P AD=0.15P PS=1.3U
+ PD=1.3U
* device instance $117 r0 *1 14.25,1.2 slvtpfet
M$117 \$I1214 \$I22 \$I457 \$I36 slvtpfet L=0.2U W=1U AS=0.15P AD=0.15P PS=1.3U
+ PD=1.3U
* device instance $118 r0 *1 14.75,1.2 slvtpfet
M$118 \$I457 \$1 \$I457 \$I36 slvtpfet L=0.2U W=1U AS=0.15P AD=0.15P PS=1.3U
+ PD=1.3U
* device instance $119 r0 *1 15.25,1.2 slvtpfet
M$119 \$I457 \$I76 \$I1217 \$I36 slvtpfet L=0.2U W=1U AS=0.15P AD=0.15P PS=1.3U
+ PD=1.3U
* device instance $120 r0 *1 15.75,1.2 slvtpfet
M$120 \$I1217 \$I451 \$1 \$I36 slvtpfet L=0.2U W=1U AS=0.15P AD=0.15P PS=1.3U
+ PD=1.3U
* device instance $121 r0 *1 16.25,1.2 slvtpfet
M$121 \$1 \$I453 \$1 \$I36 slvtpfet L=0.2U W=1U AS=0.15P AD=0.15P PS=1.3U
+ PD=1.3U
* device instance $122 r0 *1 16.75,1.2 slvtpfet
M$122 \$1 \$I457 \$I76 \$I36 slvtpfet L=0.2U W=1U AS=0.15P AD=0.15P PS=1.3U
+ PD=1.3U
* device instance $123 r0 *1 17.25,1.2 slvtpfet
M$123 \$I76 \$I453 \$I76 \$I36 slvtpfet L=0.2U W=1U AS=0.15P AD=0.15P PS=1.3U
+ PD=1.3U
* device instance $124 r0 *1 17.75,1.2 slvtpfet
M$124 \$I76 \$I451 \$I426 \$I36 slvtpfet L=0.2U W=1U AS=0.15P AD=0.15P PS=1.3U
+ PD=1.3U
* device instance $125 r0 *1 18.25,1.2 slvtpfet
M$125 \$I426 \$1 \$I426 \$I36 slvtpfet L=0.2U W=1U AS=0.15P AD=0.15P PS=1.3U
+ PD=1.3U
* device instance $126 r0 *1 18.75,1.2 slvtpfet
M$126 \$I426 \$I83 \$I1224 \$I36 slvtpfet L=0.2U W=1U AS=0.15P AD=0.15P PS=1.3U
+ PD=1.3U
* device instance $127 r0 *1 19.25,1.2 slvtpfet
M$127 \$I1224 \$I453 \$1 \$I36 slvtpfet L=0.2U W=1U AS=0.15P AD=0.15P PS=1.3U
+ PD=1.3U
* device instance $129 r0 *1 20.25,1.2 slvtpfet
M$129 \$1 \$I426 \$I83 \$I36 slvtpfet L=0.2U W=1U AS=0.15P AD=0.15P PS=1.3U
+ PD=1.3U
* device instance $130 r0 *1 20.75,1.2 slvtpfet
M$130 \$I83 \$1 \$1 \$I36 slvtpfet L=0.2U W=1U AS=0.15P AD=0.15P PS=1.3U PD=1.3U
* device instance $131 r0 *1 21.25,1.2 slvtpfet
M$131 \$1 \$I83 \$I8 \$I36 slvtpfet L=0.2U W=1U AS=0.15P AD=0.15P PS=1.3U
+ PD=1.3U
* device instance $132 r0 *1 21.75,1.2 slvtpfet
M$132 \$I8 \$1 \$1 \$I36 slvtpfet L=0.2U W=1U AS=0.15P AD=0.15P PS=1.3U PD=1.3U
* device instance $133 r0 *1 22.25,1.2 slvtpfet
M$133 \$1 \$I8 \$I498 \$I36 slvtpfet L=0.2U W=1U AS=0.15P AD=0.15P PS=1.3U
+ PD=1.3U
* device instance $134 r0 *1 22.75,1.2 slvtpfet
M$134 \$I498 \$1 \$1 \$I36 slvtpfet L=0.2U W=1U AS=0.15P AD=0.15P PS=1.3U
+ PD=1.3U
* device instance $135 r0 *1 23.25,1.2 slvtpfet
M$135 \$1 \$I498 \$I519 \$I36 slvtpfet L=0.2U W=1U AS=0.15P AD=0.15P PS=1.3U
+ PD=1.3U
* device instance $136 r0 *1 23.75,1.2 slvtpfet
M$136 \$I519 \$1 \$1 \$I36 slvtpfet L=0.2U W=1U AS=0.15P AD=0.15P PS=1.3U
+ PD=1.3U
* device instance $137 r0 *1 24.25,1.2 slvtpfet
M$137 \$1 \$I498 \$1 \$I36 slvtpfet L=0.2U W=2U AS=0.3P AD=0.3P PS=2.6U PD=2.6U
* device instance $138 r0 *1 24.75,1.2 slvtpfet
M$138 \$1 \$I519 \$I1139 \$I36 slvtpfet L=0.2U W=1U AS=0.15P AD=0.15P PS=1.3U
+ PD=1.3U
* device instance $139 r0 *1 25.25,1.2 slvtpfet
M$139 \$I1139 \$I8 \$I523 \$I36 slvtpfet L=0.2U W=1U AS=0.15P AD=0.15P PS=1.3U
+ PD=1.3U
* device instance $140 r0 *1 25.75,1.2 slvtpfet
M$140 \$I523 \$1 \$I523 \$I36 slvtpfet L=0.2U W=1U AS=0.15P AD=0.15P PS=1.3U
+ PD=1.3U
* device instance $141 r0 *1 26.25,1.2 slvtpfet
M$141 \$I523 \$I165 \$I1157 \$I36 slvtpfet L=0.2U W=1U AS=0.15P AD=0.15P
+ PS=1.3U PD=1.3U
* device instance $142 r0 *1 26.75,1.2 slvtpfet
M$142 \$I1157 \$I498 \$1 \$I36 slvtpfet L=0.2U W=1U AS=0.15P AD=0.15P PS=1.3U
+ PD=1.3U
* device instance $143 r0 *1 27.25,1.2 slvtpfet
M$143 \$1 \$I519 \$1 \$I36 slvtpfet L=0.2U W=1U AS=0.15P AD=0.15P PS=1.3U
+ PD=1.3U
* device instance $144 r0 *1 27.75,1.2 slvtpfet
M$144 \$1 \$I523 \$I165 \$I36 slvtpfet L=0.2U W=1U AS=0.15P AD=0.15P PS=1.3U
+ PD=1.3U
* device instance $145 r0 *1 28.25,1.2 slvtpfet
M$145 \$I165 \$I519 \$I165 \$I36 slvtpfet L=0.2U W=1U AS=0.15P AD=0.15P PS=1.3U
+ PD=1.3U
* device instance $146 r0 *1 28.75,1.2 slvtpfet
M$146 \$I165 \$I498 \$I529 \$I36 slvtpfet L=0.2U W=1U AS=0.15P AD=0.15P PS=1.3U
+ PD=1.3U
* device instance $147 r0 *1 29.25,1.2 slvtpfet
M$147 \$I529 \$1 \$I529 \$I36 slvtpfet L=0.2U W=1U AS=0.15P AD=0.15P PS=1.3U
+ PD=1.3U
* device instance $148 r0 *1 29.75,1.2 slvtpfet
M$148 \$I529 \$I186 \$I1164 \$I36 slvtpfet L=0.2U W=1U AS=0.15P AD=0.15P
+ PS=1.3U PD=1.3U
* device instance $149 r0 *1 30.25,1.2 slvtpfet
M$149 \$I1164 \$I519 \$1 \$I36 slvtpfet L=0.2U W=1U AS=0.15P AD=0.15P PS=1.3U
+ PD=1.3U
* device instance $151 r0 *1 31.25,1.2 slvtpfet
M$151 \$1 \$I529 \$I186 \$I36 slvtpfet L=0.2U W=1U AS=0.15P AD=0.15P PS=1.3U
+ PD=1.3U
* device instance $152 r0 *1 31.75,1.2 slvtpfet
M$152 \$I186 \$1 \$1 \$I36 slvtpfet L=0.2U W=1U AS=0.15P AD=0.15P PS=1.3U
+ PD=1.3U
* device instance $153 r0 *1 32.25,1.2 slvtpfet
M$153 \$1 \$I186 \$I9 \$I36 slvtpfet L=0.2U W=1U AS=0.15P AD=0.15P PS=1.3U
+ PD=1.3U
* device instance $154 r0 *1 32.75,1.2 slvtpfet
M$154 \$I9 \$1 \$1 \$I36 slvtpfet L=0.2U W=1U AS=0.15P AD=0.15P PS=1.3U PD=1.3U
* device instance $155 r0 *1 33.25,1.2 slvtpfet
M$155 \$1 \$I9 \$I395 \$I36 slvtpfet L=0.2U W=1U AS=0.15P AD=0.15P PS=1.3U
+ PD=1.3U
* device instance $156 r0 *1 33.75,1.2 slvtpfet
M$156 \$I395 \$1 \$1 \$I36 slvtpfet L=0.2U W=1U AS=0.15P AD=0.15P PS=1.3U
+ PD=1.3U
* device instance $157 r0 *1 34.25,1.2 slvtpfet
M$157 \$1 \$I395 \$I392 \$I36 slvtpfet L=0.2U W=1U AS=0.15P AD=0.15P PS=1.3U
+ PD=1.3U
* device instance $158 r0 *1 34.75,1.2 slvtpfet
M$158 \$I392 \$1 \$1 \$I36 slvtpfet L=0.2U W=1U AS=0.15P AD=0.15P PS=1.3U
+ PD=1.3U
* device instance $159 r0 *1 35.25,1.2 slvtpfet
M$159 \$1 \$I395 \$1 \$I36 slvtpfet L=0.2U W=2U AS=0.3P AD=0.3P PS=2.6U PD=2.6U
* device instance $160 r0 *1 35.75,1.2 slvtpfet
M$160 \$1 \$I392 \$I1239 \$I36 slvtpfet L=0.2U W=1U AS=0.15P AD=0.15P PS=1.3U
+ PD=1.3U
* device instance $161 r0 *1 36.25,1.2 slvtpfet
M$161 \$I1239 \$I9 \$I408 \$I36 slvtpfet L=0.2U W=1U AS=0.15P AD=0.15P PS=1.3U
+ PD=1.3U
* device instance $162 r0 *1 36.75,1.2 slvtpfet
M$162 \$I408 \$1 \$I408 \$I36 slvtpfet L=0.2U W=1U AS=0.15P AD=0.15P PS=1.3U
+ PD=1.3U
* device instance $163 r0 *1 37.25,1.2 slvtpfet
M$163 \$I408 \$I64 \$I1242 \$I36 slvtpfet L=0.2U W=1U AS=0.15P AD=0.15P PS=1.3U
+ PD=1.3U
* device instance $164 r0 *1 37.75,1.2 slvtpfet
M$164 \$I1242 \$I395 \$1 \$I36 slvtpfet L=0.2U W=1U AS=0.15P AD=0.15P PS=1.3U
+ PD=1.3U
* device instance $165 r0 *1 38.25,1.2 slvtpfet
M$165 \$1 \$I392 \$1 \$I36 slvtpfet L=0.2U W=1U AS=0.15P AD=0.15P PS=1.3U
+ PD=1.3U
* device instance $166 r0 *1 38.75,1.2 slvtpfet
M$166 \$1 \$I408 \$I64 \$I36 slvtpfet L=0.2U W=1U AS=0.15P AD=0.15P PS=1.3U
+ PD=1.3U
* device instance $167 r0 *1 39.25,1.2 slvtpfet
M$167 \$I64 \$I392 \$I64 \$I36 slvtpfet L=0.2U W=1U AS=0.15P AD=0.15P PS=1.3U
+ PD=1.3U
* device instance $168 r0 *1 39.75,1.2 slvtpfet
M$168 \$I64 \$I395 \$I414 \$I36 slvtpfet L=0.2U W=1U AS=0.15P AD=0.15P PS=1.3U
+ PD=1.3U
* device instance $169 r0 *1 40.25,1.2 slvtpfet
M$169 \$I414 \$1 \$I414 \$I36 slvtpfet L=0.2U W=1U AS=0.15P AD=0.15P PS=1.3U
+ PD=1.3U
* device instance $170 r0 *1 40.75,1.2 slvtpfet
M$170 \$I414 \$I71 \$I1249 \$I36 slvtpfet L=0.2U W=1U AS=0.15P AD=0.15P PS=1.3U
+ PD=1.3U
* device instance $171 r0 *1 41.25,1.2 slvtpfet
M$171 \$I1249 \$I392 \$1 \$I36 slvtpfet L=0.2U W=1U AS=0.15P AD=0.15P PS=1.3U
+ PD=1.3U
* device instance $173 r0 *1 42.25,1.2 slvtpfet
M$173 \$1 \$I414 \$I71 \$I36 slvtpfet L=0.2U W=1U AS=0.15P AD=0.15P PS=1.3U
+ PD=1.3U
* device instance $174 r0 *1 42.75,1.2 slvtpfet
M$174 \$I71 \$1 \$1 \$I36 slvtpfet L=0.2U W=1U AS=0.15P AD=0.15P PS=1.3U PD=1.3U
* device instance $175 r0 *1 43.25,1.2 slvtpfet
M$175 \$1 \$I71 \$I10 \$I36 slvtpfet L=0.2U W=1U AS=0.15P AD=0.15P PS=1.3U
+ PD=1.3U
* device instance $176 r0 *1 43.75,1.2 slvtpfet
M$176 \$I10 \$1 \$1 \$I36 slvtpfet L=0.2U W=1U AS=0.15P AD=0.15P PS=1.3U PD=1.3U
* device instance $177 r0 *1 44.25,-1.2 slvtnfet
M$177 \$1 \$I10 \$I438 SUBSTRATE slvtnfet L=0.2U W=1U AS=0.15P AD=0.15P PS=1.3U
+ PD=1.3U
* device instance $178 r0 *1 44.75,-1.2 slvtnfet
M$178 \$I438 \$1 \$1 SUBSTRATE slvtnfet L=0.2U W=1U AS=0.15P AD=0.15P PS=1.3U
+ PD=1.3U
* device instance $179 r0 *1 45.25,-1.2 slvtnfet
M$179 \$1 \$I438 \$I477 SUBSTRATE slvtnfet L=0.2U W=1U AS=0.15P AD=0.15P
+ PS=1.3U PD=1.3U
* device instance $180 r0 *1 45.75,-1.2 slvtnfet
M$180 \$I477 \$1 \$1 SUBSTRATE slvtnfet L=0.2U W=1U AS=0.15P AD=0.15P PS=1.3U
+ PD=1.3U
* device instance $181 r0 *1 46.25,-1.2 slvtnfet
M$181 \$1 \$I438 \$I479 SUBSTRATE slvtnfet L=0.2U W=1U AS=0.15P AD=0.15P
+ PS=1.3U PD=1.3U
* device instance $182 r0 *1 46.75,-1.2 slvtnfet
M$182 \$I479 \$I477 \$I479 SUBSTRATE slvtnfet L=0.2U W=1U AS=0.15P AD=0.15P
+ PS=1.3U PD=1.3U
* device instance $183 r0 *1 47.25,-1.2 slvtnfet
M$183 \$I479 \$I10 \$I468 SUBSTRATE slvtnfet L=0.2U W=1U AS=0.15P AD=0.15P
+ PS=1.3U PD=1.3U
* device instance $184 r0 *1 47.75,-1.2 slvtnfet
M$184 \$I468 \$1 \$I468 SUBSTRATE slvtnfet L=0.2U W=1U AS=0.15P AD=0.15P
+ PS=1.3U PD=1.3U
* device instance $185 r0 *1 48.25,-1.2 slvtnfet
M$185 \$I468 \$I120 \$I466 SUBSTRATE slvtnfet L=0.2U W=1U AS=0.15P AD=0.15P
+ PS=1.3U PD=1.3U
* device instance $186 r0 *1 48.75,-1.2 slvtnfet
M$186 \$I466 \$I438 \$I466 SUBSTRATE slvtnfet L=0.2U W=1U AS=0.15P AD=0.15P
+ PS=1.3U PD=1.3U
* device instance $187 r0 *1 49.25,-1.2 slvtnfet
M$187 \$I466 \$I477 \$1 SUBSTRATE slvtnfet L=0.2U W=1U AS=0.15P AD=0.15P
+ PS=1.3U PD=1.3U
* device instance $188 r0 *1 49.75,-1.2 slvtnfet
M$188 \$1 \$I468 \$I120 SUBSTRATE slvtnfet L=0.2U W=1U AS=0.15P AD=0.15P
+ PS=1.3U PD=1.3U
* device instance $189 r0 *1 50.25,-1.2 slvtnfet
M$189 \$I120 \$I477 \$I462 SUBSTRATE slvtnfet L=0.2U W=1U AS=0.15P AD=0.15P
+ PS=1.3U PD=1.3U
* device instance $190 r0 *1 50.75,-1.2 slvtnfet
M$190 \$I462 \$I438 \$I462 SUBSTRATE slvtnfet L=0.2U W=1U AS=0.15P AD=0.15P
+ PS=1.3U PD=1.3U
* device instance $191 r0 *1 51.25,-1.2 slvtnfet
M$191 \$I462 \$1 \$I462 SUBSTRATE slvtnfet L=0.2U W=1U AS=0.15P AD=0.15P
+ PS=1.3U PD=1.3U
* device instance $192 r0 *1 51.75,-1.2 slvtnfet
M$192 \$I462 \$I113 \$I459 SUBSTRATE slvtnfet L=0.2U W=1U AS=0.15P AD=0.15P
+ PS=1.3U PD=1.3U
* device instance $193 r0 *1 52.25,-1.2 slvtnfet
M$193 \$I459 \$I477 \$I459 SUBSTRATE slvtnfet L=0.2U W=1U AS=0.15P AD=0.15P
+ PS=1.3U PD=1.3U
* device instance $194 r0 *1 52.75,-1.2 slvtnfet
M$194 \$I459 \$I438 \$1 SUBSTRATE slvtnfet L=0.2U W=1U AS=0.15P AD=0.15P
+ PS=1.3U PD=1.3U
* device instance $195 r0 *1 53.25,-1.2 slvtnfet
M$195 \$1 \$I462 \$I113 SUBSTRATE slvtnfet L=0.2U W=1U AS=0.15P AD=0.15P
+ PS=1.3U PD=1.3U
* device instance $196 r0 *1 53.75,-1.2 slvtnfet
M$196 \$I113 \$1 \$1 SUBSTRATE slvtnfet L=0.2U W=1U AS=0.15P AD=0.15P PS=1.3U
+ PD=1.3U
* device instance $197 r0 *1 54.25,-1.2 slvtnfet
M$197 \$1 \$I113 \$I11 SUBSTRATE slvtnfet L=0.2U W=1U AS=0.15P AD=0.15P PS=1.3U
+ PD=1.3U
* device instance $198 r0 *1 54.75,-1.2 slvtnfet
M$198 \$I11 \$1 \$1 SUBSTRATE slvtnfet L=0.2U W=1U AS=0.15P AD=0.15P PS=1.3U
+ PD=1.3U
* device instance $199 r0 *1 55.25,-1.2 slvtnfet
M$199 \$1 \$I11 \$I505 SUBSTRATE slvtnfet L=0.2U W=1U AS=0.15P AD=0.15P PS=1.3U
+ PD=1.3U
* device instance $200 r0 *1 55.75,-1.2 slvtnfet
M$200 \$I505 \$1 \$1 SUBSTRATE slvtnfet L=0.2U W=1U AS=0.15P AD=0.15P PS=1.3U
+ PD=1.3U
* device instance $201 r0 *1 56.25,-1.2 slvtnfet
M$201 \$1 \$I505 \$I503 SUBSTRATE slvtnfet L=0.2U W=1U AS=0.15P AD=0.15P
+ PS=1.3U PD=1.3U
* device instance $202 r0 *1 56.75,-1.2 slvtnfet
M$202 \$I503 \$1 \$1 SUBSTRATE slvtnfet L=0.2U W=1U AS=0.15P AD=0.15P PS=1.3U
+ PD=1.3U
* device instance $203 r0 *1 57.25,-1.2 slvtnfet
M$203 \$1 \$I505 \$I501 SUBSTRATE slvtnfet L=0.2U W=1U AS=0.15P AD=0.15P
+ PS=1.3U PD=1.3U
* device instance $204 r0 *1 57.75,-1.2 slvtnfet
M$204 \$I501 \$I503 \$I501 SUBSTRATE slvtnfet L=0.2U W=1U AS=0.15P AD=0.15P
+ PS=1.3U PD=1.3U
* device instance $205 r0 *1 58.25,-1.2 slvtnfet
M$205 \$I501 \$I11 \$I499 SUBSTRATE slvtnfet L=0.2U W=1U AS=0.15P AD=0.15P
+ PS=1.3U PD=1.3U
* device instance $206 r0 *1 58.75,-1.2 slvtnfet
M$206 \$I499 \$1 \$I499 SUBSTRATE slvtnfet L=0.2U W=1U AS=0.15P AD=0.15P
+ PS=1.3U PD=1.3U
* device instance $207 r0 *1 59.25,-1.2 slvtnfet
M$207 \$I499 \$I151 \$I497 SUBSTRATE slvtnfet L=0.2U W=1U AS=0.15P AD=0.15P
+ PS=1.3U PD=1.3U
* device instance $208 r0 *1 59.75,-1.2 slvtnfet
M$208 \$I497 \$I505 \$I497 SUBSTRATE slvtnfet L=0.2U W=1U AS=0.15P AD=0.15P
+ PS=1.3U PD=1.3U
* device instance $209 r0 *1 60.25,-1.2 slvtnfet
M$209 \$I497 \$I503 \$1 SUBSTRATE slvtnfet L=0.2U W=1U AS=0.15P AD=0.15P
+ PS=1.3U PD=1.3U
* device instance $210 r0 *1 60.75,-1.2 slvtnfet
M$210 \$1 \$I499 \$I151 SUBSTRATE slvtnfet L=0.2U W=1U AS=0.15P AD=0.15P
+ PS=1.3U PD=1.3U
* device instance $211 r0 *1 61.25,-1.2 slvtnfet
M$211 \$I151 \$I503 \$I493 SUBSTRATE slvtnfet L=0.2U W=1U AS=0.15P AD=0.15P
+ PS=1.3U PD=1.3U
* device instance $212 r0 *1 61.75,-1.2 slvtnfet
M$212 \$I493 \$I505 \$I493 SUBSTRATE slvtnfet L=0.2U W=1U AS=0.15P AD=0.15P
+ PS=1.3U PD=1.3U
* device instance $213 r0 *1 62.25,-1.2 slvtnfet
M$213 \$I493 \$1 \$I493 SUBSTRATE slvtnfet L=0.2U W=1U AS=0.15P AD=0.15P
+ PS=1.3U PD=1.3U
* device instance $214 r0 *1 62.75,-1.2 slvtnfet
M$214 \$I493 \$I144 \$I490 SUBSTRATE slvtnfet L=0.2U W=1U AS=0.15P AD=0.15P
+ PS=1.3U PD=1.3U
* device instance $215 r0 *1 63.25,-1.2 slvtnfet
M$215 \$I490 \$I503 \$I490 SUBSTRATE slvtnfet L=0.2U W=1U AS=0.15P AD=0.15P
+ PS=1.3U PD=1.3U
* device instance $216 r0 *1 63.75,-1.2 slvtnfet
M$216 \$I490 \$I505 \$1 SUBSTRATE slvtnfet L=0.2U W=1U AS=0.15P AD=0.15P
+ PS=1.3U PD=1.3U
* device instance $217 r0 *1 64.25,-1.2 slvtnfet
M$217 \$1 \$I493 \$I144 SUBSTRATE slvtnfet L=0.2U W=1U AS=0.15P AD=0.15P
+ PS=1.3U PD=1.3U
* device instance $218 r0 *1 64.75,-1.2 slvtnfet
M$218 \$I144 \$1 \$1 SUBSTRATE slvtnfet L=0.2U W=1U AS=0.15P AD=0.15P PS=1.3U
+ PD=1.3U
* device instance $219 r0 *1 65.25,-1.2 slvtnfet
M$219 \$1 \$I144 \$I12 SUBSTRATE slvtnfet L=0.2U W=1U AS=0.15P AD=0.15P PS=1.3U
+ PD=1.3U
* device instance $220 r0 *1 65.75,-1.2 slvtnfet
M$220 \$I12 \$1 \$1 SUBSTRATE slvtnfet L=0.2U W=1U AS=0.15P AD=0.15P PS=1.3U
+ PD=1.3U
* device instance $221 r0 *1 66.25,-1.2 slvtnfet
M$221 \$1 \$I12 \$I435 SUBSTRATE slvtnfet L=0.2U W=1U AS=0.15P AD=0.15P PS=1.3U
+ PD=1.3U
* device instance $222 r0 *1 66.75,-1.2 slvtnfet
M$222 \$I435 \$1 \$1 SUBSTRATE slvtnfet L=0.2U W=1U AS=0.15P AD=0.15P PS=1.3U
+ PD=1.3U
* device instance $223 r0 *1 67.25,-1.2 slvtnfet
M$223 \$1 \$I435 \$I516 SUBSTRATE slvtnfet L=0.2U W=1U AS=0.15P AD=0.15P
+ PS=1.3U PD=1.3U
* device instance $224 r0 *1 67.75,-1.2 slvtnfet
M$224 \$I516 \$1 \$1 SUBSTRATE slvtnfet L=0.2U W=1U AS=0.15P AD=0.15P PS=1.3U
+ PD=1.3U
* device instance $225 r0 *1 68.25,-1.2 slvtnfet
M$225 \$1 \$I435 \$I514 SUBSTRATE slvtnfet L=0.2U W=1U AS=0.15P AD=0.15P
+ PS=1.3U PD=1.3U
* device instance $226 r0 *1 68.75,-1.2 slvtnfet
M$226 \$I514 \$I516 \$I514 SUBSTRATE slvtnfet L=0.2U W=1U AS=0.15P AD=0.15P
+ PS=1.3U PD=1.3U
* device instance $227 r0 *1 69.25,-1.2 slvtnfet
M$227 \$I514 \$I12 \$I512 SUBSTRATE slvtnfet L=0.2U W=1U AS=0.15P AD=0.15P
+ PS=1.3U PD=1.3U
* device instance $228 r0 *1 69.75,-1.2 slvtnfet
M$228 \$I512 \$1 \$I512 SUBSTRATE slvtnfet L=0.2U W=1U AS=0.15P AD=0.15P
+ PS=1.3U PD=1.3U
* device instance $229 r0 *1 70.25,-1.2 slvtnfet
M$229 \$I512 \$I217 \$I563 SUBSTRATE slvtnfet L=0.2U W=1U AS=0.15P AD=0.15P
+ PS=1.3U PD=1.3U
* device instance $230 r0 *1 70.75,-1.2 slvtnfet
M$230 \$I563 \$I435 \$I563 SUBSTRATE slvtnfet L=0.2U W=1U AS=0.15P AD=0.15P
+ PS=1.3U PD=1.3U